Circuito_teste/Circuito_OpenDSS/Master.dss
clear
Set DefaultBaseFrequency=60

New circuit.Teste !bus1=sourcebus basekv=13.8 pu=1.00 MVAsc3=1000 MVAsc1=1500
~ basekv=13.8 pu=1.0001 phases=3 bus1=SourceBus  
~ Angle=30                     ! advance angle 30 deg so result agree with published angle
~ MVAsc3=300000 MVASC1=3100000    ! stiffen the source to approximate inf source
!~ MVAsc3=40000 MVASC1=41000

/*
New Transformer.Sub Phases=3 Windings=2   XHL=(8 1000 /)
~ wdg=1 bus=SourceBus.1.2.3  	 conn=delta  kv=13.8  kva=75   %r=(.5 1000 /)   XHT=(4 1000 /)
~ wdg=2 bus=N01  .1.2.3          conn=wye    kv=0.22  kva=75   %r=(.5 1000 /)   XLT=(4 1000 /)
*/

!New Transformer.Sub Phases=3 Windings=2   XHL=(3.16  1000 /)
!~ wdg=1 bus=SourceBus     conn=delta  kv=13.8  kva=75   %r=.76   XHT=(1.58 1000 /)
!~ wdg=2 bus=N01			  conn=wye    kv=0.22  kva=75   %r=.76   XLT=(1.58 1000 /)
!/*
New Transformer.Sub Phases=3 Windings=2  XHL=3.16  %loadloss=9.76 ppm_antifloat=0 %noloadloss=0 %imag=3.1
~ wdg=1 bus=SourceBus     conn=delta  kv=13.8  kva=75   
~ wdg=2 bus=N01			  conn=wye    kv=0.22  kva=75  
!*/
!new transformer.Sub Phases=3,Windings=2,Buses=[SourceBus N01],Conns=[delta wye],kvs=[13.8 0.22],kvas=[75.000000000 75.000000000],Taps=[1,1.000000000],%loadloss=1.340000000,%noloadloss=0.340000000 

!dump transformer.Sub debug

Redirect LineCodes.dss 				! Faz a leitura dos parâmetros dos cabos
Redirect Lines.dss					! Faz a leiitura da declaração das linhas do sistema
Redirect LoadShapes\LoadShapes.dss	! Faz a leitura das curvas de carga do sistema, serão utilizadas na criação das cargas
Redirect Loads						! Declara as cargas do Sistema
!Redirect Monitores

Set Voltagebases=[13.8, 0.22]
calcv

set mode = daily 
set stepsize = 1 
set number = 48
